<?xml version="1.0" encoding="UTF-8"?>

<!-- generated on 2025-03-11 11:40:35 by Eclipse SUMO duarouter Version 1.12.0
<configuration xmlns:xsi="http://www.w3.org/2001/XMLSchema-instance" xsi:noNamespaceSchemaLocation="http://sumo.dlr.de/xsd/duarouterConfiguration.xsd">

    <input>
        <net-file value="Town05.net.xml"/>
        <route-files value="trips.trips.xml"/>
    </input>

    <output>
        <output-file value="Town05.rou.xml"/>
        <alternatives-output value="Town05.rou.alt.xml"/>
    </output>

    <processing>
        <remove-loops value="true"/>
    </processing>

    <time>
        <begin value="0"/>
        <end value="600"/>
    </time>

    <report>
        <no-warnings value="true"/>
        <ignore-errors value="true"/>
        <no-step-log value="true"/>
    </report>

</configuration>
-->

<routes xmlns:xsi="http://www.w3.org/2001/XMLSchema-instance" xsi:noNamespaceSchemaLocation="http://sumo.dlr.de/xsd/routes_file.xsd">
    <vType id="passenger" vClass="passenger"/>
    <vehicle id="0" type="vehicle.audi.a2" depart="3.00">
        <route edges="-39.0.00 -0.0.00 17.0.00 -7.0.00 -8.0.00"/>
    </vehicle>
    <vehicle id="1" type="vehicle.mustang.mustang" depart="5.00">
        <route edges="24.0.00 23.0.00 22.0.00 21.0.00 -29.0.00 25.0.00 15.0.00 -19.0.00"/>
    </vehicle>
    <vehicle id="2" type="vehicle.citroen.c3" depart="10.00">
        <route edges="9.0.00 8.0.00 7.0.00 6.0.00 33.0.00 -48.0.00 19.0.00"/>
    </vehicle>
    <vehicle id="3" type="vehicle.chevrolet.impala" depart="12.00">
        <route edges="-36.0.00 -27.0.00 -28.0.00 -21.0.00 -41.0.00 -51.0.00"/>
    </vehicle>
    <vehicle id="4" type="vehicle.audi.tt" depart="12.00">
        <route edges="24.0.00 23.0.00 22.0.00 21.0.00 -30.0.00 -48.0.00 -20.0.00"/>
    </vehicle>
    <vehicle id="5" type="vehicle.lincoln.mkz2017" depart="20.00">
        <route edges="28.0.00 27.0.00 -38.0.00 -13.0.00 -14.0.00 -16.0.00 -0.0.00 -1.0.00 -2.0.00 -3.0.00"/>
    </vehicle>
    <vehicle id="6" type="vehicle.audi.a2" depart="20.00">
        <route edges="45.0.00 8.0.00 7.0.00 6.0.00 -16.0.00 -26.0.00 28.0.00"/>
    </vehicle>
    <vehicle id="7" type="vehicle.mercedes-benz.coupe" depart="21.00">
        <route edges="-21.0.00 -22.0.00 -23.0.00 -43.0.00 -44.0.00 -9.0.00 -10.0.00"/>
    </vehicle>
    <vehicle id="8" type="vehicle.jeep.wrangler_rubicon" depart="22.00">
        <route edges="-16.0.00 -0.0.00 -1.0.00 -2.0.00 -3.0.00"/>
    </vehicle>
    <vehicle id="9" type="vehicle.nissan.micra" depart="26.00">
        <route edges="10.0.00 9.0.00 8.0.00 7.0.00 6.0.00 15.0.00 13.0.00 35.0.00 -27.0.00"/>
    </vehicle>
    <vehicle id="10" type="vehicle.audi.tt" depart="27.00">
        <route edges="51.0.00 41.0.00 21.0.00 28.0.00 27.0.00 -38.0.00"/>
    </vehicle>
    <vehicle id="11" type="vehicle.chevrolet.impala" depart="28.00">
        <route edges="13.0.00 35.0.00 -27.0.00 -28.0.00 -29.0.00 -0.0.00 -1.0.00 -2.0.00 -3.0.00 -11.0.00 24.0.00"/>
    </vehicle>
    <vehicle id="12" type="vehicle.jeep.wrangler_rubicon" depart="32.00">
        <route edges="11.0.00 3.0.00 2.0.00 1.0.00 0.0.00 -26.0.00"/>
    </vehicle>
    <vehicle id="13" type="vehicle.mini.cooperst" depart="33.00">
        <route edges="-38.0.00 -13.0.00 -14.0.00 -16.0.00 -0.0.00 -1.0.00 -2.0.00 -44.0.00"/>
    </vehicle>
    <vehicle id="14" type="vehicle.mustang.mustang" depart="36.00">
        <route edges="-9.0.00 -10.0.00 -11.0.00 24.0.00 23.0.00 22.0.00 21.0.00 28.0.00"/>
    </vehicle>
    <vehicle id="15" type="vehicle.chevrolet.impala" depart="41.00">
        <route edges="11.0.00 3.0.00 2.0.00 1.0.00 0.0.00 39.0.00 -48.0.00 -20.0.00"/>
    </vehicle>
    <vehicle id="16" type="vehicle.chevrolet.impala" depart="43.00">
        <route edges="-27.0.00 -28.0.00 -29.0.00 -0.0.00 -1.0.00 -2.0.00 -3.0.00"/>
    </vehicle>
    <vehicle id="17" type="vehicle.nissan.micra" depart="47.00">
        <route edges="-32.0.00 -6.0.00 46.0.00 45.0.00"/>
    </vehicle>
    <vehicle id="18" type="vehicle.mustang.mustang" depart="47.00">
        <route edges="-27.0.00 -28.0.00 -29.0.00 25.0.00 -6.0.00 -7.0.00 -8.0.00 -9.0.00 -10.0.00"/>
    </vehicle>
    <vehicle id="19" type="vehicle.nissan.micra" depart="55.00">
        <route edges="-24.0.00 11.0.00 10.0.00 9.0.00 8.0.00 7.0.00 6.0.00 15.0.00 -19.0.00 48.0.00"/>
    </vehicle>
    <vehicle id="20" type="vehicle.jeep.wrangler_rubicon" depart="62.00">
        <route edges="13.0.00 35.0.00 -27.0.00 -28.0.00 -21.0.00 -41.0.00 -42.0.00"/>
    </vehicle>
    <vehicle id="21" type="vehicle.audi.a2" depart="62.00">
        <route edges="13.0.00 -36.0.00"/>
    </vehicle>
    <vehicle id="22" type="vehicle.mercedes-benz.coupe" depart="66.00">
        <route edges="44.0.00 2.0.00 1.0.00 0.0.00 25.0.00 15.0.00 13.0.00 35.0.00"/>
    </vehicle>
    <vehicle id="23" type="vehicle.seat.leon" depart="66.00">
        <route edges="11.0.00 3.0.00 2.0.00 1.0.00 0.0.00 39.0.00 31.0.00"/>
    </vehicle>
    <vehicle id="24" type="vehicle.jeep.wrangler_rubicon" depart="70.00">
        <route edges="-29.0.00 25.0.00 -6.0.00 -7.0.00 -8.0.00 -9.0.00 -10.0.00"/>
    </vehicle>
    <vehicle id="25" type="vehicle.nissan.patrol" depart="72.00">
        <route edges="-28.0.00 -29.0.00 25.0.00 -6.0.00 -7.0.00 -8.0.00 -45.0.00"/>
    </vehicle>
    <vehicle id="26" type="vehicle.seat.leon" depart="76.00">
        <route edges="11.0.00 3.0.00 2.0.00 1.0.00 0.0.00 25.0.00"/>
    </vehicle>
    <vehicle id="27" type="vehicle.citroen.c3" depart="77.00">
        <route edges="-6.0.00 -7.0.00 -8.0.00 -9.0.00 -10.0.00"/>
    </vehicle>
    <vehicle id="28" type="vehicle.mini.cooperst" depart="79.00">
        <route edges="44.0.00 43.0.00 23.0.00 22.0.00 21.0.00 -30.0.00"/>
    </vehicle>
    <vehicle id="29" type="vehicle.audi.a2" depart="79.00">
        <route edges="9.0.00 8.0.00 7.0.00 6.0.00 -16.0.00"/>
    </vehicle>
    <vehicle id="30" type="vehicle.audi.tt" depart="81.00">
        <route edges="23.0.00 22.0.00 21.0.00 -29.0.00 25.0.00 15.0.00 -19.0.00"/>
    </vehicle>
    <vehicle id="31" type="vehicle.mustang.mustang" depart="83.00">
        <route edges="11.0.00 3.0.00 2.0.00 1.0.00 0.0.00 39.0.00 -48.0.00 -20.0.00 -28.0.00"/>
    </vehicle>
    <vehicle id="32" type="vehicle.bmw.grandtourer" depart="85.00">
        <route edges="10.0.00 9.0.00 8.0.00 7.0.00 6.0.00"/>
    </vehicle>
    <vehicle id="33" type="vehicle.audi.tt" depart="90.00">
        <route edges="-13.0.00 -14.0.00 -16.0.00 -0.0.00 -1.0.00 -2.0.00 43.0.00"/>
    </vehicle>
    <vehicle id="34" type="vehicle.jeep.wrangler_rubicon" depart="91.00">
        <route edges="-27.0.00 -28.0.00 -21.0.00 -22.0.00 -23.0.00 -43.0.00 -44.0.00"/>
    </vehicle>
    <vehicle id="35" type="vehicle.mercedes-benz.coupe" depart="96.00">
        <route edges="9.0.00 44.0.00 43.0.00 23.0.00 22.0.00 21.0.00 -30.0.00"/>
    </vehicle>
    <vehicle id="36" type="vehicle.citroen.c3" depart="100.00">
        <route edges="-10.0.00 -11.0.00 24.0.00 23.0.00 22.0.00 21.0.00 28.0.00 27.0.00 -38.0.00 -13.0.00"/>
    </vehicle>
    <vehicle id="37" type="vehicle.citroen.c3" depart="103.00">
        <route edges="3.0.00 43.0.00 23.0.00 22.0.00 21.0.00"/>
    </vehicle>
    <vehicle id="38" type="vehicle.mini.cooperst" depart="103.00">
        <route edges="-24.0.00 11.0.00 3.0.00 2.0.00 1.0.00 0.0.00 39.0.00 -48.0.00"/>
    </vehicle>
    <vehicle id="39" type="vehicle.mini.cooperst" depart="104.00">
        <route edges="-45.0.00 -46.0.00 6.0.00 -16.0.00 -26.0.00 28.0.00 27.0.00"/>
    </vehicle>
    <vehicle id="40" type="vehicle.bmw.grandtourer" depart="104.00">
        <route edges="-11.0.00 24.0.00 23.0.00 22.0.00 21.0.00 -29.0.00 25.0.00 15.0.00 -19.0.00"/>
    </vehicle>
    <vehicle id="41" type="vehicle.seat.leon" depart="126.00">
        <route edges="-42.0.00 23.0.00 22.0.00 21.0.00 28.0.00 27.0.00 37.0.00"/>
    </vehicle>
    <vehicle id="42" type="vehicle.audi.tt" depart="126.00">
        <route edges="37.0.00"/>
    </vehicle>
    <vehicle id="43" type="vehicle.bmw.grandtourer" depart="128.00">
        <route edges="41.0.00 40.0.00 0.0.00 25.0.00 15.0.00 13.0.00 35.0.00 -27.0.00 20.0.00"/>
    </vehicle>
    <vehicle id="44" type="vehicle.audi.tt" depart="132.00">
        <route edges="37.0.00 -13.0.00"/>
    </vehicle>
    <vehicle id="45" type="vehicle.audi.a2" depart="132.00">
        <route edges="23.0.00 22.0.00 21.0.00 -30.0.00"/>
    </vehicle>
    <vehicle id="46" type="vehicle.audi.a2" depart="134.00">
        <route edges="13.0.00 35.0.00 -27.0.00 -28.0.00 -29.0.00 -0.0.00 -1.0.00 -2.0.00 43.0.00"/>
    </vehicle>
    <vehicle id="47" type="vehicle.nissan.patrol" depart="138.00">
        <route edges="41.0.00 21.0.00 -30.0.00 -48.0.00"/>
    </vehicle>
    <vehicle id="48" type="vehicle.nissan.patrol" depart="138.00">
        <route edges="-6.0.00 -7.0.00 -5.0.00 -50.0.00 -23.0.00 -24.0.00 11.0.00"/>
    </vehicle>
    <vehicle id="49" type="vehicle.jeep.wrangler_rubicon" depart="138.00">
        <route edges="10.0.00 9.0.00 8.0.00 7.0.00 6.0.00 -16.0.00 -26.0.00 28.0.00 27.0.00 -38.0.00"/>
    </vehicle>
    <vehicle id="50" type="vehicle.audi.tt" depart="139.00">
        <route edges="-36.0.00 -27.0.00 -28.0.00 -21.0.00 -41.0.00 -51.0.00"/>
    </vehicle>
    <vehicle id="51" type="vehicle.seat.leon" depart="143.00">
        <route edges="23.0.00 22.0.00 21.0.00 28.0.00 27.0.00 -38.0.00 -13.0.00"/>
    </vehicle>
    <vehicle id="52" type="vehicle.lincoln.mkz2017" depart="145.00">
        <route edges="-29.0.00 -0.0.00 -1.0.00 -2.0.00 -3.0.00 -11.0.00"/>
    </vehicle>
    <vehicle id="53" type="vehicle.bmw.grandtourer" depart="148.00">
        <route edges="-29.0.00 -0.0.00 -1.0.00 -2.0.00 -3.0.00 -11.0.00"/>
    </vehicle>
    <vehicle id="54" type="vehicle.bmw.grandtourer" depart="152.00">
        <route edges="-21.0.00 -22.0.00 -23.0.00 -43.0.00 -44.0.00 -9.0.00 -10.0.00"/>
    </vehicle>
    <vehicle id="55" type="vehicle.jeep.wrangler_rubicon" depart="156.00">
        <route edges="-28.0.00 -21.0.00 -22.0.00 -23.0.00 -24.0.00 11.0.00 10.0.00 9.0.00"/>
    </vehicle>
    <vehicle id="56" type="vehicle.mercedes-benz.coupe" depart="156.00">
        <route edges="24.0.00 23.0.00 22.0.00 21.0.00 -29.0.00 25.0.00 15.0.00 13.0.00 -36.0.00"/>
    </vehicle>
    <vehicle id="57" type="vehicle.audi.a2" depart="160.00">
        <route edges="44.0.00 43.0.00 23.0.00 22.0.00 21.0.00 28.0.00 27.0.00"/>
    </vehicle>
    <vehicle id="58" type="vehicle.mustang.mustang" depart="162.00">
        <route edges="-46.0.00 6.0.00 33.0.00 -48.0.00 -20.0.00"/>
    </vehicle>
    <vehicle id="59" type="vehicle.bmw.grandtourer" depart="162.00">
        <route edges="31.0.00 -21.0.00 -22.0.00 -23.0.00 -43.0.00"/>
    </vehicle>
    <vehicle id="60" type="vehicle.nissan.patrol" depart="163.00">
        <route edges="-5.0.00 1.0.00 0.0.00 25.0.00 15.0.00 13.0.00 -36.0.00"/>
    </vehicle>
    <vehicle id="61" type="vehicle.bmw.grandtourer" depart="167.00">
        <route edges="10.0.00 9.0.00 8.0.00 7.0.00 6.0.00 15.0.00 13.0.00"/>
    </vehicle>
    <vehicle id="62" type="vehicle.nissan.micra" depart="171.00">
        <route edges="3.0.00 2.0.00 1.0.00 0.0.00 -26.0.00"/>
    </vehicle>
    <vehicle id="63" type="vehicle.nissan.patrol" depart="176.00">
        <route edges="-11.0.00 24.0.00 23.0.00 22.0.00 21.0.00 -30.0.00"/>
    </vehicle>
    <vehicle id="64" type="vehicle.nissan.patrol" depart="178.00">
        <route edges="8.0.00 -5.0.00 -50.0.00 22.0.00 21.0.00 -30.0.00"/>
    </vehicle>
    <vehicle id="65" type="vehicle.audi.tt" depart="179.00">
        <route edges="3.0.00 2.0.00 1.0.00 0.0.00 -26.0.00 28.0.00 27.0.00"/>
    </vehicle>
    <vehicle id="66" type="vehicle.seat.leon" depart="179.00">
        <route edges="3.0.00 2.0.00 1.0.00 0.0.00 25.0.00"/>
    </vehicle>
    <vehicle id="67" type="vehicle.mustang.mustang" depart="187.00">
        <route edges="41.0.00 40.0.00 0.0.00 25.0.00 15.0.00"/>
    </vehicle>
    <vehicle id="68" type="vehicle.audi.a2" depart="193.00">
        <route edges="15.0.00 13.0.00 -36.0.00"/>
    </vehicle>
    <vehicle id="69" type="vehicle.nissan.micra" depart="195.00">
        <route edges="11.0.00 3.0.00 2.0.00 1.0.00 0.0.00 -26.0.00"/>
    </vehicle>
    <vehicle id="70" type="vehicle.bmw.grandtourer" depart="202.00">
        <route edges="3.0.00 2.0.00 1.0.00 0.0.00 25.0.00"/>
    </vehicle>
    <vehicle id="71" type="vehicle.lincoln.mkz2017" depart="202.00">
        <route edges="13.0.00 35.0.00 -27.0.00"/>
    </vehicle>
    <vehicle id="72" type="vehicle.bmw.grandtourer" depart="202.00">
        <route edges="-39.0.00 -0.0.00 -1.0.00 -2.0.00 43.0.00"/>
    </vehicle>
    <vehicle id="73" type="vehicle.audi.a2" depart="204.00">
        <route edges="-38.0.00 -13.0.00 -14.0.00 -16.0.00 -26.0.00 -21.0.00 -22.0.00 -23.0.00 -24.0.00 11.0.00"/>
    </vehicle>
    <vehicle id="74" type="vehicle.nissan.micra" depart="208.00">
        <route edges="-11.0.00 24.0.00 23.0.00 -52.0.00 1.0.00 0.0.00 -26.0.00"/>
    </vehicle>
    <vehicle id="75" type="vehicle.audi.tt" depart="210.00">
        <route edges="-26.0.00 -21.0.00 -22.0.00 -23.0.00 -43.0.00 -3.0.00 -11.0.00"/>
    </vehicle>
    <vehicle id="76" type="vehicle.nissan.patrol" depart="210.00">
        <route edges="-24.0.00 11.0.00 3.0.00 2.0.00 1.0.00 0.0.00 -26.0.00 28.0.00 27.0.00 -38.0.00"/>
    </vehicle>
    <vehicle id="77" type="vehicle.audi.tt" depart="210.00">
        <route edges="-13.0.00 -14.0.00 -16.0.00 -0.0.00 -1.0.00 -2.0.00 43.0.00"/>
    </vehicle>
    <vehicle id="78" type="vehicle.lincoln.mkz2017" depart="211.00">
        <route edges="11.0.00 10.0.00 9.0.00 8.0.00 7.0.00 6.0.00 15.0.00 13.0.00 35.0.00 -27.0.00"/>
    </vehicle>
    <vehicle id="79" type="vehicle.audi.a2" depart="212.00">
        <route edges="35.0.00 -27.0.00 -28.0.00 -29.0.00 -0.0.00 -1.0.00 -50.0.00"/>
    </vehicle>
    <vehicle id="80" type="vehicle.nissan.patrol" depart="213.00">
        <route edges="-29.0.00 -0.0.00 -1.0.00 -2.0.00 -3.0.00 10.0.00"/>
    </vehicle>
    <vehicle id="81" type="vehicle.nissan.micra" depart="214.00">
        <route edges="-45.0.00 -46.0.00 6.0.00 15.0.00 13.0.00 35.0.00 -27.0.00 20.0.00"/>
    </vehicle>
    <vehicle id="82" type="vehicle.lincoln.mkz2017" depart="216.00">
        <route edges="-39.0.00 -0.0.00 -1.0.00 -2.0.00 -3.0.00 -11.0.00 24.0.00"/>
    </vehicle>
    <vehicle id="83" type="vehicle.bmw.grandtourer" depart="222.00">
        <route edges="-14.0.00 -16.0.00 -26.0.00 28.0.00 27.0.00"/>
    </vehicle>
    <vehicle id="84" type="vehicle.mercedes-benz.coupe" depart="228.00">
        <route edges="-51.0.00 22.0.00 21.0.00 -29.0.00 25.0.00 15.0.00"/>
    </vehicle>
    <vehicle id="85" type="vehicle.mini.cooperst" depart="231.00">
        <route edges="11.0.00 10.0.00 9.0.00 8.0.00 7.0.00 6.0.00 15.0.00 13.0.00 35.0.00 -27.0.00"/>
    </vehicle>
    <vehicle id="86" type="vehicle.nissan.micra" depart="232.00">
        <route edges="-27.0.00 -28.0.00 -21.0.00 -22.0.00 -23.0.00 -24.0.00 11.0.00 10.0.00 9.0.00"/>
    </vehicle>
    <vehicle id="87" type="vehicle.lincoln.mkz2017" depart="235.00">
        <route edges="-16.0.00 -0.0.00 -1.0.00 -2.0.00 -3.0.00 10.0.00"/>
    </vehicle>
    <vehicle id="88" type="vehicle.nissan.micra" depart="237.00">
        <route edges="-36.0.00 -27.0.00 -28.0.00 -21.0.00 -41.0.00 -42.0.00"/>
    </vehicle>
    <vehicle id="89" type="vehicle.seat.leon" depart="239.00">
        <route edges="-21.0.00 -22.0.00 -23.0.00 -43.0.00 -44.0.00 -9.0.00"/>
    </vehicle>
    <vehicle id="90" type="vehicle.bmw.grandtourer" depart="240.00">
        <route edges="42.0.00 41.0.00 40.0.00 0.0.00 25.0.00 15.0.00 -19.0.00"/>
    </vehicle>
    <vehicle id="91" type="vehicle.nissan.patrol" depart="244.00">
        <route edges="10.0.00 9.0.00 8.0.00 7.0.00 6.0.00 15.0.00"/>
    </vehicle>
    <vehicle id="92" type="vehicle.audi.a2" depart="245.00">
        <route edges="-38.0.00 -13.0.00"/>
    </vehicle>
    <vehicle id="93" type="vehicle.bmw.grandtourer" depart="246.00">
        <route edges="10.0.00 9.0.00 8.0.00 7.0.00 6.0.00 15.0.00 13.0.00 -36.0.00"/>
    </vehicle>
    <vehicle id="94" type="vehicle.mercedes-benz.coupe" depart="247.00">
        <route edges="11.0.00 3.0.00 2.0.00 1.0.00 0.0.00 39.0.00 31.0.00"/>
    </vehicle>
    <vehicle id="95" type="vehicle.chevrolet.impala" depart="248.00">
        <route edges="31.0.00 -21.0.00 -22.0.00 -23.0.00 -43.0.00"/>
    </vehicle>
    <vehicle id="96" type="vehicle.mini.cooperst" depart="252.00">
        <route edges="-3.0.00 10.0.00 9.0.00 8.0.00 7.0.00 6.0.00 15.0.00 13.0.00 35.0.00 -27.0.00 20.0.00"/>
    </vehicle>
    <vehicle id="97" type="vehicle.bmw.grandtourer" depart="257.00">
        <route edges="-32.0.00 -6.0.00 -7.0.00 -8.0.00"/>
    </vehicle>
    <vehicle id="98" type="vehicle.mercedes-benz.coupe" depart="261.00">
        <route edges="9.0.00 8.0.00 7.0.00 6.0.00 33.0.00 -48.0.00 -20.0.00"/>
    </vehicle>
    <vehicle id="99" type="vehicle.mini.cooperst" depart="264.00">
        <route edges="-11.0.00 24.0.00 23.0.00 22.0.00 21.0.00 -30.0.00 -32.0.00"/>
    </vehicle>
    <vehicle id="100" type="vehicle.bmw.grandtourer" depart="265.00">
        <route edges="27.0.00 -38.0.00"/>
    </vehicle>
    <vehicle id="101" type="vehicle.mustang.mustang" depart="267.00">
        <route edges="10.0.00 9.0.00 8.0.00 7.0.00 6.0.00 15.0.00 -19.0.00"/>
    </vehicle>
    <vehicle id="102" type="vehicle.jeep.wrangler_rubicon" depart="271.00">
        <route edges="-16.0.00 -26.0.00 -21.0.00 -22.0.00 -23.0.00 -24.0.00 11.0.00"/>
    </vehicle>
    <vehicle id="103" type="vehicle.seat.leon" depart="273.00">
        <route edges="-26.0.00 -21.0.00 -22.0.00 -23.0.00 -24.0.00 11.0.00"/>
    </vehicle>
    <vehicle id="104" type="vehicle.mercedes-benz.coupe" depart="274.00">
        <route edges="37.0.00 -13.0.00 -14.0.00 -16.0.00 -0.0.00 -1.0.00 -2.0.00 -3.0.00 10.0.00"/>
    </vehicle>
    <vehicle id="105" type="vehicle.audi.tt" depart="275.00">
        <route edges="23.0.00 22.0.00 21.0.00 -29.0.00 25.0.00 15.0.00"/>
    </vehicle>
    <vehicle id="106" type="vehicle.audi.a2" depart="276.00">
        <route edges="-32.0.00 -6.0.00 -7.0.00 -8.0.00 -9.0.00 -10.0.00 -11.0.00"/>
    </vehicle>
    <vehicle id="107" type="vehicle.seat.leon" depart="279.00">
        <route edges="23.0.00 22.0.00 21.0.00 -29.0.00 25.0.00 15.0.00 13.0.00"/>
    </vehicle>
    <vehicle id="108" type="vehicle.citroen.c3" depart="281.00">
        <route edges="4.0.00 -46.0.00 6.0.00 -16.0.00 -26.0.00 28.0.00 27.0.00"/>
    </vehicle>
    <vehicle id="109" type="vehicle.seat.leon" depart="281.00">
        <route edges="-43.0.00 2.0.00 1.0.00 0.0.00 -26.0.00 28.0.00 27.0.00 -38.0.00"/>
    </vehicle>
    <vehicle id="110" type="vehicle.audi.tt" depart="282.00">
        <route edges="37.0.00 -13.0.00 -14.0.00 -16.0.00 -0.0.00 -1.0.00 -2.0.00 -3.0.00 10.0.00 9.0.00"/>
    </vehicle>
    <vehicle id="111" type="vehicle.lincoln.mkz2017" depart="283.00">
        <route edges="-24.0.00 11.0.00 10.0.00 9.0.00 8.0.00 7.0.00 6.0.00 15.0.00 -19.0.00 48.0.00"/>
    </vehicle>
    <vehicle id="112" type="vehicle.citroen.c3" depart="286.00">
        <route edges="-10.0.00 3.0.00 2.0.00 1.0.00 0.0.00 25.0.00 15.0.00 -19.0.00"/>
    </vehicle>
    <vehicle id="113" type="vehicle.jeep.wrangler_rubicon" depart="288.00">
        <route edges="-36.0.00 -27.0.00 -28.0.00 -29.0.00 -0.0.00 -1.0.00 -2.0.00 -3.0.00 -11.0.00 24.0.00"/>
    </vehicle>
    <vehicle id="114" type="vehicle.audi.tt" depart="298.00">
        <route edges="42.0.00 41.0.00 40.0.00 0.0.00 25.0.00 15.0.00 -19.0.00"/>
    </vehicle>
    <vehicle id="115" type="vehicle.audi.a2" depart="300.00">
        <route edges="-43.0.00 2.0.00 1.0.00 0.0.00 25.0.00 15.0.00 13.0.00"/>
    </vehicle>
    <vehicle id="116" type="vehicle.audi.tt" depart="302.00">
        <route edges="-27.0.00 -28.0.00 -29.0.00 25.0.00 -6.0.00 -7.0.00"/>
    </vehicle>
    <vehicle id="117" type="vehicle.nissan.patrol" depart="303.00">
        <route edges="-11.0.00 24.0.00 23.0.00 22.0.00 21.0.00 -29.0.00 25.0.00 15.0.00"/>
    </vehicle>
    <vehicle id="118" type="vehicle.chevrolet.impala" depart="306.00">
        <route edges="-39.0.00 -0.0.00 17.0.00 -7.0.00 -8.0.00 -9.0.00"/>
    </vehicle>
    <vehicle id="119" type="vehicle.bmw.grandtourer" depart="307.00">
        <route edges="-32.0.00 -6.0.00 -7.0.00 -8.0.00 -9.0.00 -10.0.00 -11.0.00"/>
    </vehicle>
    <vehicle id="120" type="vehicle.chevrolet.impala" depart="307.00">
        <route edges="-11.0.00 24.0.00 23.0.00 22.0.00 21.0.00 -29.0.00 25.0.00 15.0.00 13.0.00 35.0.00 -27.0.00"/>
    </vehicle>
    <vehicle id="121" type="vehicle.mercedes-benz.coupe" depart="308.00">
        <route edges="13.0.00 35.0.00 -27.0.00 -28.0.00 -21.0.00 -22.0.00 -23.0.00"/>
    </vehicle>
    <vehicle id="122" type="vehicle.jeep.wrangler_rubicon" depart="308.00">
        <route edges="-45.0.00 -46.0.00 6.0.00 15.0.00 -19.0.00 48.0.00"/>
    </vehicle>
    <vehicle id="123" type="vehicle.lincoln.mkz2017" depart="311.00">
        <route edges="9.0.00 8.0.00 7.0.00 6.0.00 33.0.00 31.0.00"/>
    </vehicle>
    <vehicle id="124" type="vehicle.nissan.micra" depart="311.00">
        <route edges="15.0.00 -19.0.00 48.0.00 31.0.00 -21.0.00 -22.0.00 -23.0.00 -24.0.00"/>
    </vehicle>
    <vehicle id="125" type="vehicle.jeep.wrangler_rubicon" depart="311.00">
        <route edges="-14.0.00 -16.0.00 -26.0.00 -21.0.00 -22.0.00 -23.0.00"/>
    </vehicle>
    <vehicle id="126" type="vehicle.seat.leon" depart="313.00">
        <route edges="-13.0.00 -14.0.00 -16.0.00 -0.0.00 -1.0.00 -2.0.00 43.0.00"/>
    </vehicle>
    <vehicle id="127" type="vehicle.seat.leon" depart="313.00">
        <route edges="-32.0.00 -6.0.00 -7.0.00 -8.0.00 -9.0.00 -10.0.00"/>
    </vehicle>
    <vehicle id="128" type="vehicle.citroen.c3" depart="316.00">
        <route edges="7.0.00 6.0.00 -16.0.00 -26.0.00 28.0.00 27.0.00"/>
    </vehicle>
    <vehicle id="129" type="vehicle.mini.cooperst" depart="319.00">
        <route edges="-43.0.00 2.0.00 1.0.00 0.0.00 25.0.00 15.0.00 13.0.00"/>
    </vehicle>
    <vehicle id="130" type="vehicle.lincoln.mkz2017" depart="320.00">
        <route edges="-32.0.00 -6.0.00 -7.0.00 -8.0.00 -9.0.00 -10.0.00 -11.0.00 24.0.00"/>
    </vehicle>
    <vehicle id="131" type="vehicle.bmw.grandtourer" depart="321.00">
        <route edges="13.0.00 -36.0.00"/>
    </vehicle>
    <vehicle id="132" type="vehicle.lincoln.mkz2017" depart="323.00">
        <route edges="24.0.00 23.0.00 22.0.00 21.0.00 28.0.00 27.0.00 -38.0.00 -13.0.00 -14.0.00"/>
    </vehicle>
    <vehicle id="133" type="vehicle.audi.a2" depart="328.00">
        <route edges="27.0.00 -38.0.00 -13.0.00 -14.0.00 -6.0.00 46.0.00"/>
    </vehicle>
    <vehicle id="134" type="vehicle.bmw.grandtourer" depart="332.00">
        <route edges="11.0.00 3.0.00 2.0.00 1.0.00 0.0.00 39.0.00 -32.0.00"/>
    </vehicle>
    <vehicle id="135" type="vehicle.nissan.patrol" depart="333.00">
        <route edges="-39.0.00 -0.0.00 -1.0.00 -2.0.00 43.0.00"/>
    </vehicle>
    <vehicle id="136" type="vehicle.audi.a2" depart="335.00">
        <route edges="9.0.00 8.0.00 7.0.00 6.0.00 15.0.00 13.0.00 35.0.00"/>
    </vehicle>
    <vehicle id="137" type="vehicle.audi.a2" depart="336.00">
        <route edges="10.0.00 9.0.00 8.0.00 7.0.00 6.0.00 33.0.00 31.0.00"/>
    </vehicle>
    <vehicle id="138" type="vehicle.lincoln.mkz2017" depart="336.00">
        <route edges="10.0.00 9.0.00 8.0.00 7.0.00 6.0.00 -16.0.00 -26.0.00 28.0.00 27.0.00"/>
    </vehicle>
    <vehicle id="139" type="vehicle.jeep.wrangler_rubicon" depart="339.00">
        <route edges="37.0.00 -13.0.00 -14.0.00 -6.0.00 -7.0.00 -8.0.00 -9.0.00 -10.0.00 -11.0.00"/>
    </vehicle>
    <vehicle id="140" type="vehicle.nissan.patrol" depart="340.00">
        <route edges="-51.0.00 22.0.00 21.0.00 28.0.00 27.0.00 -38.0.00"/>
    </vehicle>
    <vehicle id="141" type="vehicle.nissan.micra" depart="343.00">
        <route edges="27.0.00 -38.0.00 -13.0.00 -14.0.00 -6.0.00 46.0.00"/>
    </vehicle>
    <vehicle id="142" type="vehicle.audi.a2" depart="347.00">
        <route edges="24.0.00 23.0.00 22.0.00 21.0.00 28.0.00 27.0.00 -38.0.00"/>
    </vehicle>
    <vehicle id="143" type="vehicle.mini.cooperst" depart="354.00">
        <route edges="-24.0.00 11.0.00 3.0.00 2.0.00 1.0.00 0.0.00 -26.0.00 28.0.00 27.0.00 37.0.00"/>
    </vehicle>
    <vehicle id="144" type="vehicle.mustang.mustang" depart="360.00">
        <route edges="3.0.00 2.0.00 1.0.00 0.0.00 -26.0.00 28.0.00 27.0.00 -38.0.00"/>
    </vehicle>
    <vehicle id="145" type="vehicle.audi.a2" depart="360.00">
        <route edges="27.0.00 -38.0.00 -13.0.00 -14.0.00 -6.0.00 -7.0.00 -8.0.00 -9.0.00 -10.0.00"/>
    </vehicle>
    <vehicle id="146" type="vehicle.audi.tt" depart="363.00">
        <route edges="10.0.00 9.0.00 8.0.00 7.0.00 6.0.00 -16.0.00 -26.0.00 28.0.00"/>
    </vehicle>
    <vehicle id="147" type="vehicle.audi.tt" depart="363.00">
        <route edges="-13.0.00 -14.0.00 -16.0.00 -26.0.00 -21.0.00 -22.0.00 51.0.00"/>
    </vehicle>
    <vehicle id="148" type="vehicle.lincoln.mkz2017" depart="366.00">
        <route edges="45.0.00 8.0.00 7.0.00 6.0.00 15.0.00 13.0.00 35.0.00 -27.0.00 20.0.00"/>
    </vehicle>
    <vehicle id="149" type="vehicle.nissan.patrol" depart="369.00">
        <route edges="41.0.00 40.0.00 0.0.00 25.0.00 15.0.00 -19.0.00"/>
    </vehicle>
    <vehicle id="150" type="vehicle.citroen.c3" depart="374.00">
        <route edges="8.0.00 7.0.00 6.0.00 33.0.00 -48.0.00"/>
    </vehicle>
    <vehicle id="151" type="vehicle.nissan.micra" depart="374.00">
        <route edges="-36.0.00 -27.0.00 -28.0.00"/>
    </vehicle>
    <vehicle id="152" type="vehicle.audi.a2" depart="377.00">
        <route edges="-9.0.00 -10.0.00 -11.0.00 24.0.00 23.0.00 22.0.00 21.0.00 -30.0.00"/>
    </vehicle>
    <vehicle id="153" type="vehicle.mustang.mustang" depart="379.00">
        <route edges="10.0.00 9.0.00 8.0.00 7.0.00 6.0.00 33.0.00 -48.0.00 19.0.00"/>
    </vehicle>
    <vehicle id="154" type="vehicle.mustang.mustang" depart="384.00">
        <route edges="3.0.00 2.0.00 49.0.00 7.0.00 6.0.00"/>
    </vehicle>
    <vehicle id="155" type="vehicle.lincoln.mkz2017" depart="385.00">
        <route edges="-11.0.00 24.0.00 23.0.00 22.0.00 21.0.00 -29.0.00 25.0.00 15.0.00 13.0.00 -36.0.00"/>
    </vehicle>
    <vehicle id="156" type="vehicle.mini.cooperst" depart="386.00">
        <route edges="-5.0.00 1.0.00 0.0.00 25.0.00 15.0.00 13.0.00 -36.0.00"/>
    </vehicle>
    <vehicle id="157" type="vehicle.nissan.patrol" depart="387.00">
        <route edges="23.0.00 22.0.00 21.0.00 -29.0.00 25.0.00 15.0.00"/>
    </vehicle>
    <vehicle id="158" type="vehicle.seat.leon" depart="394.00">
        <route edges="10.0.00 9.0.00 8.0.00 7.0.00 6.0.00 -16.0.00"/>
    </vehicle>
    <vehicle id="159" type="vehicle.lincoln.mkz2017" depart="395.00">
        <route edges="-11.0.00 24.0.00 23.0.00 22.0.00 21.0.00 -29.0.00 25.0.00 15.0.00 -19.0.00"/>
    </vehicle>
    <vehicle id="160" type="vehicle.citroen.c3" depart="396.00">
        <route edges="10.0.00 9.0.00 8.0.00 7.0.00 6.0.00 33.0.00 -48.0.00 -20.0.00 -28.0.00"/>
    </vehicle>
    <vehicle id="161" type="vehicle.seat.leon" depart="398.00">
        <route edges="-45.0.00 -46.0.00 6.0.00 33.0.00 -48.0.00 -20.0.00"/>
    </vehicle>
    <vehicle id="162" type="vehicle.citroen.c3" depart="399.00">
        <route edges="31.0.00 -21.0.00 -22.0.00 -23.0.00 -43.0.00 -44.0.00 -9.0.00"/>
    </vehicle>
    <vehicle id="163" type="vehicle.lincoln.mkz2017" depart="409.00">
        <route edges="-10.0.00 3.0.00 2.0.00 1.0.00 0.0.00 25.0.00 15.0.00 13.0.00 -36.0.00"/>
    </vehicle>
    <vehicle id="164" type="vehicle.nissan.patrol" depart="414.00">
        <route edges="10.0.00 9.0.00 8.0.00 7.0.00 6.0.00"/>
    </vehicle>
    <vehicle id="165" type="vehicle.mini.cooperst" depart="417.00">
        <route edges="-52.0.00 1.0.00 0.0.00 -26.0.00 28.0.00 27.0.00 37.0.00"/>
    </vehicle>
    <vehicle id="166" type="vehicle.audi.tt" depart="420.00">
        <route edges="-38.0.00 -13.0.00"/>
    </vehicle>
    <vehicle id="167" type="vehicle.lincoln.mkz2017" depart="425.00">
        <route edges="-11.0.00 24.0.00 23.0.00 22.0.00 21.0.00 -29.0.00 25.0.00"/>
    </vehicle>
    <vehicle id="168" type="vehicle.chevrolet.impala" depart="427.00">
        <route edges="10.0.00 9.0.00 8.0.00 7.0.00 6.0.00 33.0.00 -48.0.00 -20.0.00 -28.0.00"/>
    </vehicle>
    <vehicle id="169" type="vehicle.mercedes-benz.coupe" depart="427.00">
        <route edges="41.0.00 21.0.00 28.0.00 27.0.00 37.0.00"/>
    </vehicle>
    <vehicle id="170" type="vehicle.chevrolet.impala" depart="431.00">
        <route edges="-10.0.00 -11.0.00 24.0.00 23.0.00 22.0.00 21.0.00"/>
    </vehicle>
    <vehicle id="171" type="vehicle.audi.a2" depart="432.00">
        <route edges="13.0.00 35.0.00 -27.0.00 -28.0.00 -21.0.00 -41.0.00"/>
    </vehicle>
    <vehicle id="172" type="vehicle.bmw.grandtourer" depart="437.00">
        <route edges="-9.0.00 -10.0.00 3.0.00 2.0.00 1.0.00 0.0.00 25.0.00 15.0.00 13.0.00 35.0.00 -27.0.00 20.0.00"/>
    </vehicle>
    <vehicle id="173" type="vehicle.citroen.c3" depart="438.00">
        <route edges="11.0.00 3.0.00 2.0.00 1.0.00 0.0.00 -26.0.00 28.0.00 27.0.00 -38.0.00"/>
    </vehicle>
    <vehicle id="174" type="vehicle.lincoln.mkz2017" depart="439.00">
        <route edges="-8.0.00 -45.0.00 -46.0.00 6.0.00 15.0.00 13.0.00 -36.0.00"/>
    </vehicle>
    <vehicle id="175" type="vehicle.audi.a2" depart="440.00">
        <route edges="9.0.00 8.0.00 7.0.00 6.0.00 33.0.00 -39.0.00"/>
    </vehicle>
    <vehicle id="176" type="vehicle.audi.a2" depart="447.00">
        <route edges="33.0.00 -39.0.00 -0.0.00 -1.0.00 -2.0.00 -3.0.00 -11.0.00"/>
    </vehicle>
    <vehicle id="177" type="vehicle.chevrolet.impala" depart="447.00">
        <route edges="-36.0.00 -27.0.00 -28.0.00 -21.0.00 -22.0.00 -23.0.00 -24.0.00"/>
    </vehicle>