<?xml version="1.0" encoding="UTF-8"?>

<!-- generated on 2025-11-19T16:58:26.682788-05:00 by Eclipse SUMO netedit 1.25.0
-->

<routes xmlns:xsi="http://www.w3.org/2001/XMLSchema-instance" xsi:noNamespaceSchemaLocation="http://sumo.dlr.de/xsd/routes_file.xsd">
    <route id="stop1" edges="10"/>
    <vType id="MoveOverLaw" carFollowModel="IDM"/>
    <vType id="car" carFollowModel="IDM" lcStrategic="-1" lcCooperative="-1" lcSpeedGain="0"  lcKeepRight="0"/>
    <!-- Vehicles, persons and containers (sorted by depart) -->
    <!--trip id="t_0" depart="0.00" from="-13" to="11" via="-14 -20"/>
    <trip id="t_1" depart="10.00" from="-13" to="6" via="12 -9 -21 -0"/>
    <trip id="t_2" depart="20.00" from="-13" to="6" via="12 -9 -21 -0"/>
    <trip id="t_3" depart="30.00" from="-13" to="6" via="12 -9 -21 -0"/>
    <trip id="t_4" depart="40.00" from="-13" to="6" via="12 -9 -21 -0"/>
    <trip id="t_5" depart="50.00" from="-13" to="6" via="12 -9 -21 -0"/>
    <trip id="t_6" depart="60.00" from="-13" to="6" via="12 -9 -21 -0"/>
    <trip id="t_7" depart="70.00" from="-13" to="6" via="12 -9 -21 -0"/>
    <trip id="t_8" depart="80.00" from="-13" to="6" via="12 -9 -21 -0"/>
    <trip id="t_9" depart="90.00" from="-13" to="6" via="12 -9 -21 -0"/>
    <trip id="t_10" depart="100.00" from="-13" to="6" via="12 -9 -21 -0"/>
    <trip id="t_11" depart="110.00" from="-13" to="6" via="12 -9 -21 -0"/>
    <trip id="t_12" depart="120.00" from="-13" to="6" via="12 -9 -21 -0"/>
    <trip id="t_13" depart="130.00" from="-13" to="6" via="12 -9 -21 -0"/>
    <trip id="t_14" depart="140.00" from="-13" to="6" via="12 -9 -21 -0"/>
    <trip id="t_15" depart="150.00" from="-13" to="6" via="12 -9 -21 -0"/>
    <trip id="t_16" depart="160.00" from="-13" to="6" via="12 -9 -21 -0"/>
    <trip id="t_17" depart="170.00" from="-13" to="6" via="12 -9 -21 -0"/>
    <trip id="t_18" depart="180.00" from="-13" to="6" via="12 -9 -21 -0"/>
    <trip id="t_19" depart="190.00" from="-13" to="6" via="12 -9 -21 -0"/>
    <trip id="t_20" depart="200.00" from="-13" to="6" via="12 -9 -21 -0"/-->
</routes>
