<?xml version="1.0" encoding="UTF-8"?>

<!-- generated on 2026-04-30T14:25:20.873779-05:00 by Eclipse SUMO netedit 1.26.0
-->

<additional xmlns:xsi="http://www.w3.org/2001/XMLSchema-instance" xsi:noNamespaceSchemaLocation="http://sumo.dlr.de/xsd/additional_file.xsd">
    <!-- StoppingPlaces -->
    <parkingArea id="pa_2" lane="10_0" startPos="12.46" endPos="22.46"/>
</additional>
