<?xml version="1.0" encoding="UTF-8"?>
<configuration xmlns:xsi="http://www.w3.org/2001/XMLSchema-instance" xsi:noNamespaceSchemaLocation="http://sumo.dlr.de/xsd/sumoConfiguration.xsd">
    <traci_server>
      <remote-port value="2010"/> 
      <num-clients value="2" />
    </traci_server>
    <input>
        <net-file value="Town10.net.xml"/>
        <route-files value="Town10.rou.xml"/>
        <gui-settings-file value="gui.settings.xml"/>
        <additional-files value="Town10.add.xml"/>
    </input>
    <gui_only>
        <tracker-interval value="0.1"/>
    </gui_only>
    <time>
        <step-length value="0.1"/>
    </time>
</configuration>
